<routes>
    <vType id="car"
           vClass="passenger" length="5" accel="10.5" decel="10.2"
           sigma="0.2" maxSpeed="7" laneChangeModel="SL2015"/>

    <vType id="ev"
           vClass="passenger" length="5" accel="10.5" decel="10.2"
           sigma="0.2" maxSpeed="7" laneChangeModel="SL2015"/>

    <vType id="ev2"
      		vClass="emergency" length="7" accel="5.5" decel="2.2" sigma="0.20"
      		maxSpeed="7" guiShape="emergency" speedFactor="1.0"/>

    <flow id="carflow0" type="car" beg="0" end="10000" from="E0" to="E3" probability="0.1"/>
    <!--flow id="carflow1" type="car" beg="0" end="10000" from="E0" to="E1" probability="0.1"/-->

    <flow id="carflow2" type="car" beg="0" end="10000" from="-E1" to="E2" probability="0.1"/>
    <!--flow id="carflow3" type="car" beg="0" end="10000" from="-E1" to="E3" probability="0.1"/-->

    <flow id="carflow4" type="car" beg="0" end="10000" from="-E3" to="-E0" probability="0.1"/>
    <!--flow id="carflow5" type="car" beg="0" end="10000" from="-E3" to="E2" probability="0.1"/-->

    <flow id="carflow6" type="car" beg="0" end="10000" from="-E2" to="E1" probability="0.1"/>
    <!--flow id="carflow7" type="car" beg="0" end="10000" from="-E2" to="-E0" probability="0.1"/-->


    <!--<vehicle id="0" type="car" route="route_0" depart="0"/>-->

    <flow id="evflow0" type="ev" beg="0" end="10000" from="E0" to="E3" probability="0.01"/>
    <!--flow id="evflow1" type="ev" beg="0" end="10000" from="E0" to="E1" probability="0.1"/-->

    <flow id="evflow2" type="ev" beg="0" end="10000" from="-E1" to="E2" probability="0.01"/>
    <!--flow id="evflow3" type="ev" beg="0" end="10000" from="-E1" to="E3" probability="0.1"/-->

    <flow id="evflow4" type="ev" beg="0" end="10000" from="-E3" to="-E0" probability="0.01"/>
    <!--flow id="evflow5" type="ev" beg="0" end="10000" from="-E3" to="E2" probability="0.1"/-->

    <flow id="evflow6" type="ev" beg="0" end="10000" from="-E2" to="E1" probability="0.01"/>
    <!--flow id="evflow7" type="ev" beg="0" end="10000" from="-E2" to="-E0" probability="0.1"/-->
</routes>